<?xml version="1.0" encoding="iso-8859-1"?>

<configuration xmlns:xsi="http://www.w3.org/2001/XMLSchema-instance" xsi:noNamespaceSchemaLocation="http://sumo.sf.net/xsd/sumoConfiguration.xsd">

    <input>
        <net-file value="stock_ntl.net.xml"/>
        <route-files value="stock.rou.xml"/>
        <additional-files value="stock.poly.xml"/>
    </input>
    
    <time-to-teleport value="-1"/>
    
</configuration>
