<?xml version="1.0"?>

<!-- generated on Sat Aug  4 19:21:20 2012 by SUMO duarouter Version 0.15.0
<?xml version="1.0" encoding="UTF-8"?>

<configuration xmlns:xsi="http://www.w3.org/2001/XMLSchema-instance" xsi:noNamespaceSchemaLocation="http://sumo.sf.net/xsd/duarouterConfiguration.xsd">

    <input>
        <net-file value="stock_ntl.net.xml"/>
        <flow-files value="stock.flow.xml"/>
    </input>

    <output>
        <output-file value="stock.rou.xml"/>
    </output>

</configuration>
-->

<routes xmlns:xsi="http://www.w3.org/2001/XMLSchema-instance" xsi:noNamespaceSchemaLocation="http://sumo.sf.net/xsd/routes_file.xsd">
    <vType id="CarB" length="5.00" minGap="2.50" maxSpeed="22.00">
        <carFollowing-Krauss accel="2.00" decel="5.00" sigma="0.50"/>
    </vType>
    <vehicle id="flow15_0" type="CarB" depart="0.00">
        <route edges="-53182234#1 -111084352#8 -111084352#7 -111084352#6 126051366#1 41568962#0 120284928#0 120284928#1 111084351 111084356 23161333#0 23161333#1 114152802#1 114152802#2 83167279#0 83167279#1 4742027#1 4742027#2 139542506#0 139542506#1 -1300#17 -1300#16 -1300#15 -1300#14 -1300#13 -1300#12 -1300#11 -1300#10 -1300#9 -1300#8 -1300#7 -1300#6 -1300#5 -1300#4 -1300#3 -1300#2 -1300#1 -1300#0 -5083148#4 35022832#0 35022832#1 35022832#2 129369236#1 129369236#2 -129369242#2 -129369242#1 25666151#2 25666151#3 35280823#0 35280823#1 101827668 85292123#0 85292123#1 41527705#0 41527705#1 41527705#2 5173926#0 5173926#1 5173926#2 72609229 15806655 23271283#0 16885878#3 23271286#1 15806651#1 57962422 57962425 28274698#0 28274698#1 112795737 88708494#1 24513110 -58903407 8019406 28274671 28274670 109238034#2 38767146#0 38767146#1 38767146#2 38767146#3 38767146#4 38767146#5 38767146#6 38767146#7 38767146#8 -40811938#3 -40811938#2 1881680 137386984#0 137386984#1 137386984#2 137386984#3 40811936 -7642146#0 -111657480#0"/>
    </vehicle>
    <vehicle id="flow1_0" type="CarB" depart="0.00">
        <route edges="111657480#0 7642146#0 -40811936 -137386984#3 -137386984#2 -137386984#1 -137386984#0 -1881680 40811938#2 40811938#3 -38767146#8 -38767146#7 -38767146#6 -38767146#5 -38767146#4 -38767146#3 -38767146#2 109075721#0 109075721#1 109078239#0 109078239#1 109078239#2 -42231111 -68487051#3 -68487051#2 -68487051#1 -68487051#0 17398872#0 17398872#1 17398872#2 -1881683#0"/>
    </vehicle>
    <vehicle id="flow22_0" type="CarB" depart="0.00">
        <route edges="41475010 41475011 72877412 41475013 116521694#0 149621928 -38613481#0 -39264340#4 -39264340#3 -39264340#2 -23753110#2 -23753110#1 23753112#0 23753112#1 23753112#2 23753112#3 23753112#4 23753112#5 23753112#6 23753218#0 23753218#1 23751958#2 23751958#3 23751958#4 43057367#0 43057367#1 43057367#2 43057367#3 43057367#4 43057367#5 4741240#0 4741240#1 4741240#2 121150372#1 121150372#2 121150372#3 107161278#0 107161283 111681178 111681181 -22897751#2 -22897751#1 -39265931#4 -39265931#3 -39265931#2 -39265931#1 -39265931#0 3871602#1 38931607 38931615#0 38931615#1 -3895293#4 -3895293#3 -3895293#2 -3895293#1 -3895293#0 -40507522#1 -40507522#0 40507521#1 40507519"/>
    </vehicle>
    <vehicle id="flow29_0" type="CarB" depart="0.00">
        <route edges="-40507519 -40507521#1 40507522#0 40507522#1 3895293#0 3895293#1 3895293#2 3895293#3 3895293#4 3895293#5 3895293#6 3895293#7 35971175#5 35971175#6 38931609 38931608#0 39265931#3 39265931#4 22897751#1 22897751#2 22897751#3 22897751#4 4741239#1 4741239#2 4741239#3 4741239#4 -43057367#7 -43057367#6 -43057367#5 -43057367#4 -43057367#3 -43057367#2 -43057367#1 -43057367#0 4741214#0 4741214#1 4741214#2 4741214#3 4741214#4 4741214#5 -23753099#1 -23753099#0 39264340#4 38613481#0 38613481#1 38613479#1 23753601#1 -41475010"/>
    </vehicle>
    <vehicle id="flow36_0" type="CarB" depart="0.00">
        <route edges="-24488823#1 34004380 79308529#5 -139542515#2 139542506#1 -1300#17 -1300#16 -1300#15 -1300#14 -1300#13 -1300#12 -1300#11 -1300#10 -1300#9 -1300#8 -1300#7 -1300#6 -1300#5 -1300#4 -1300#3 -1300#2 -1300#1 -1300#0 -5083148#4 35022832#0 35022832#1 35022832#2 129369236#1 129369236#2 -129369242#2 -129369242#1 25666151#2 25666151#3 35280823#0 35280823#1 101827668 85292123#0 85292123#1 41527705#0 41527705#1 41527705#2 5173926#0 5173926#1 5173926#2 72609229 15806655 23271283#0 16885878#3 23271286#1 15806651#1 57962422 57962425 28274698#0 28274698#1 112795737 88708494#1 24513110 -58903407 8019406 28274671 28274670 109238034#2 38767146#0 38767146#1 38767146#2 38767146#3 38767146#4 38767146#5 38767146#6 38767146#7 38767146#8 -40811938#3 -40811938#2 1881680 137386984#0 137386984#1 137386984#2 137386984#3 40811936 -7642146#0 -111657480#0"/>
    </vehicle>
    <vehicle id="flow8_0" type="CarB" depart="0.00">
        <route edges="1881683#0 -17398872#2 -17398872#1 -17398872#0 68487051#0 68487051#1 68487051#2 68487051#3 68487051#4 68487051#5 68487051#6 68487051#7 109238034#1 109238034#2 38767146#0 38767146#1 38767146#2 38767146#3 38767146#4 38767146#5 38767146#6 38767146#7 38767146#8 -40811938#3 -40811938#2 1881680 137386984#0 137386984#1 137386984#2 137386984#3 40811936 -7642146#0 -111657480#0"/>
    </vehicle>
    <vehicle id="flow16_0" type="CarB" depart="20.00">
        <route edges="-53182234#1 -111084352#8 -111084352#7 -111084352#6 126051366#1 41568962#0 120284928#0 120284928#1 111084351 111084356 23161333#0 23161333#1 114152802#1 114152802#2 83167279#0 83167279#1 4742027#1 4742027#2 139542506#0 139542506#1 -1300#17 -1300#16 -1300#15 -1300#14 -1300#13 -1300#12 -1300#11 -1300#10 -1300#9 -1300#8 -1300#7 -1300#6 -1300#5 -1300#4 -1300#3 -1300#2 -1300#1 -1300#0 -5083148#4 35022832#0 35022832#1 35022832#2 129369236#1 129369236#2 -129369242#2 -129369242#1 25666151#2 25666151#3 35280823#0 35280823#1 101827668 85292123#0 85292123#1 41527705#0 41527705#1 41527705#2 5173926#0 5173926#1 5173926#2 72609229 15806655 23271283#0 23271283#1 23271288 -16885971#4 -16885971#3 -16885971#2 -16885971#1 -16885971#0 -17398872#3 -1881683#0"/>
    </vehicle>
    <vehicle id="flow23_0" type="CarB" depart="20.00">
        <route edges="41475010 41475011 72877412 3871151#1 149621929 26447430#0 26447430#1 93405962 93405963#0 93405963#1 26272403#0 26272403#1 26272403#2 26272403#3 34963935 71826651#0 71826651#1 42501589#8 146789572#0 146789572#1 146789572#2 146789572#3 146789569#0 146789569#1 146789569#2 146789569#3 146789569#4 146789569#5 146789569#6 146789569#7 146789569#8 146789569#9 146789569#10 146789569#11 146789569#12 146789569#13 146789569#14 -146789581 144548772#7 146789573#3 4081159#1 4081159#2 4347407 71177665#0 -71177664 -4347406#2 4347408#0 137680374#7 -4742059#0 71177666 -120441624#2 -120441624#1 -120441624#0 137680376#0 137680376#1 41514571#3 41514571#4 4080408#0 4080408#1 4080408#2 4080408#3 -4080380#1 43157176 16744539 41780788#0 41780788#1 41780788#2 43054913#0 43054913#1 43054913#2 41781029#0 106359271 41781029#2 4879815 38322835"/>
    </vehicle>
    <vehicle id="flow2_0" type="CarB" depart="20.00">
        <route edges="111657480#0 7642146#0 -40811936 -137386984#3 -137386984#2 -137386984#1 -137386984#0 -1881680 40811938#2 40811938#3 -38767146#8 -38767146#7 -38767146#6 -38767146#5 -38767146#4 -38767146#3 -38767146#2 -38767146#1 -38767146#0 109238034#0 109238034#1 -28274670 -28274671 -8019406 58903407 43067675#0 43067675#1 43067675#2 43067675#3 121533696 15806666 15806660 72609226#0 72609226#1 72609226#2 1880565#0 1880565#1 1880565#2 41488105#0 41488105#1 85292119#0 85292119#1 42979524#0 42979524#1 42979524#2 24225343 49778495"/>
    </vehicle>
    <vehicle id="flow30_0" type="CarB" depart="20.00">
        <route edges="-40507519 -40507521#1 40507522#0 40507522#1 3895293#0 3895293#1 3895293#2 3895293#3 3895293#4 38931615#2 38931615#3 38931615#4 -3895293#15 106454410#3 109313298#0 109313298#1 58913305#0 58913305#1 58913305#2 93265645#3 93265645#0 23981217#0 23981217#1 58913343#0 -74984122#1 -74984122#0 74984116#0 74984116#1 74984116#2 -39360782#0 23981217#3 23981217#4 84198213 41780792#0 41780792#1 41780792#2 41781029#0 106359271 41781029#2 4879815 38322835"/>
    </vehicle>
    <vehicle id="flow37_0" type="CarB" depart="20.00">
        <route edges="-24488823#1 34004380 79308529#5 -139542515#2 139542506#1 -1300#17 -1300#16 -1300#15 -1300#14 -1300#13 -1300#12 -1300#11 -1300#10 -1300#9 -1300#8 -1300#7 -1300#6 -1300#5 -1300#4 -1300#3 -1300#2 -1300#1 -1300#0 -5083148#4 35022832#0 35022832#1 35022832#2 129369236#1 129369236#2 -129369242#2 -129369242#1 25666151#2 25666151#3 35280823#0 35280823#1 101827668 85292123#0 85292123#1 41527705#0 41527705#1 41527705#2 5173926#0 5173926#1 5173926#2 72609229 15806655 23271283#0 23271283#1 23271288 -16885971#4 -16885971#3 -16885971#2 -16885971#1 -16885971#0 -17398872#3 -1881683#0"/>
    </vehicle>
    <vehicle id="flow9_0" type="CarB" depart="20.00">
        <route edges="1881683#0 -17398872#2 -17398872#1 -17398872#0 68487051#0 68487051#1 68487051#2 68487051#3 68487051#4 68487051#5 -38781346#9 -38781346#8 -100711459 -38781346#6 -113748873#2 23492312#6 43067675#2 43067675#3 121533696 15806666 15806660 72609226#0 72609226#1 72609226#2 1880565#0 1880565#1 1880565#2 41488105#0 41488105#1 85292119#0 85292119#1 42979524#0 42979524#1 42979524#2 24225343 49778495"/>
    </vehicle>
    <vType id="CarC" length="7.50" minGap="3.00" maxSpeed="17.00">
        <carFollowing-Krauss accel="1.00" decel="4.00" sigma="0.50"/>
    </vType>
    <vehicle id="flow10_0" type="CarC" depart="40.00">
        <route edges="1881683#0 -17398872#2 -17398872#1 -17398872#0 68487051#0 68487051#1 68487051#2 68487051#3 68487051#4 68487051#5 -38781346#9 -38781346#8 -100711459 -38781346#6 -113748873#2 23492312#6 43067675#2 43067675#3 121533696 15806666 15806660 72609226#0 72609226#1 72609226#2 1880565#0 1880565#1 1880565#2 41488105#0 41488105#1 85292119#0 85292119#1 42979524#0 42979524#1 42979524#2 -35022832#3 -35022832#2 -35022832#1 -35022832#0 5083148#4 1300#0 1300#1 1300#2 1300#3 1300#4 1300#5 1300#6 1300#7 1300#8 1300#9 1300#10 1300#11 1300#12 1300#13 1300#14 1300#15 1300#16 1300#17 139542507#0 139542515#1 139542515#2 -79308529#5 -34004380 24488823#1"/>
    </vehicle>
    <vehicle id="flow17_0" type="CarC" depart="40.00">
        <route edges="-53182234#1 -111084352#8 -111084352#7 -111084352#6 126051366#1 41568962#0 120284928#0 120284928#1 111084351 111084356 23161333#0 23161333#1 114152802#1 114152802#2 83167279#0 83167279#1 4742027#1 4742027#2 139542506#0 139542506#1 -1300#17 -1300#16 -1300#15 -1300#14 -1300#13 -1300#12 -1300#11 -1300#10 -1300#9 -1300#8 -1300#7 -1300#6 -1300#5 -1300#4 -1300#3 -1300#2 -1300#1 -1300#0 -5083148#4 35022832#0 35022832#1 35022832#2 35022832#3 24225343 49778495"/>
    </vehicle>
    <vehicle id="flow24_0" type="CarC" depart="40.00">
        <route edges="41475010 41475011 72877412 3871151#1 149621929 26447430#0 26447430#1 93405962 93405963#0 93405963#1 26272403#0 34964160 82483335 71269689 14869719#1 42975277 24254258 88293606 121541578#0 121541578#1 121541578#2 4741996 110999798 24225377#0 24225377#1 24225377#2 24225377#3 85224562 41115731 41115732#0 41115732#1 24225390#0 111084352#8 53182234#1"/>
    </vehicle>
    <vehicle id="flow31_0" type="CarC" depart="40.00">
        <route edges="-40507519 -40507521#1 40507522#0 40507522#1 3895293#0 3895293#1 3895293#2 3895293#3 3895293#4 38931615#2 38931615#3 38931615#4 -3895293#15 106454410#3 109313298#0 109313298#1 58913305#0 58913305#1 58913305#2 93265645#3 93265645#0 23981217#0 23981217#1 23981217#2 23981217#3 23981217#4 84198213 41780792#0 41780792#1 41780792#2 41780792#3 41780792#4 41658683#0 41658683#1 41658683#2 4879821#0 4879821#1 39236686 73220632 43157173 41658689#0 117481554#0 136886889#2 117481551#0 117481551#1 117481551#2 117481551#3 117481551#4 117481551#5 20289254 139542504#0 139542504#1 139542504#2 139548967#0 102774228#0 102774228#1 113864880#0 113864880#1 41115734 41115735#0 41115735#1 41115732#1 24225390#0 111084352#8 53182234#1"/>
    </vehicle>
    <vehicle id="flow38_0" type="CarC" depart="40.00">
        <route edges="-24488823#1 34004380 79308529#5 -139542515#2 139542506#1 -1300#17 -1300#16 -1300#15 -1300#14 -1300#13 -1300#12 -1300#11 -1300#10 -1300#9 -1300#8 -1300#7 -1300#6 -1300#5 -1300#4 -1300#3 -1300#2 -1300#1 -1300#0 -5083148#4 35022832#0 35022832#1 35022832#2 35022832#3 24225343 49778495"/>
    </vehicle>
    <vehicle id="flow3_0" type="CarC" depart="40.00">
        <route edges="111657480#0 7642146#0 -40811936 -137386984#3 -137386984#2 -137386984#1 -137386984#0 -1881680 40811938#2 40811938#3 -38767146#8 -38767146#7 -38767146#6 -38767146#5 -38767146#4 -38767146#3 -38767146#2 -38767146#1 -38767146#0 109238034#0 109238034#1 -28274670 -28274671 -8019406 58903407 43067675#0 43067675#1 43067675#2 43067675#3 121533696 15806666 15806660 72609226#0 72609226#1 72609226#2 1880565#0 1880565#1 1880565#2 41488105#0 41488105#1 85292119#0 85292119#1 42979524#0 42979524#1 42979524#2 -35022832#3 -35022832#2 -35022832#1 -35022832#0 5083148#4 1300#0 1300#1 1300#2 1300#3 1300#4 1300#5 1300#6 1300#7 1300#8 1300#9 1300#10 1300#11 1300#12 1300#13 1300#14 1300#15 1300#16 1300#17 139542507#0 139542515#1 139542515#2 -79308529#5 -34004380 24488823#1"/>
    </vehicle>
    <vehicle id="flow11_0" type="CarC" depart="60.00">
        <route edges="1881683#0 -17398872#2 -17398872#1 -17398872#0 68487051#0 68487051#1 68487051#2 68487051#3 68487051#4 68487051#5 -38781346#9 -38781346#8 -100711459 -38781346#6 -113748873#2 23492312#6 43067675#2 43067675#3 121533696 15806666 15806660 72609226#0 72609226#1 72609226#2 41527703#0 41527703#1 98438064 110107986#0 110107986#1 110107986#2 110107986#3 110107986#4 24225358#0 24225358#1 24225358#2 24620590 41517906#0 41517906#1 43056027 41568955 118486291#0 118486291#1 118486291#2 24254158 24254182#0 24254182#1 24254182#2 24254182#3 121541578#0 121541578#1 121541578#2 4741996 110999798 24225377#0 24225377#1 24225377#2 24225377#3 85224562 41115731 41115732#0 41115732#1 24225390#0 111084352#8 53182234#1"/>
    </vehicle>
    <vehicle id="flow18_0" type="CarC" depart="60.00">
        <route edges="-53182234#1 -111084352#8 -111084352#7 -111084352#6 126051366#1 41568962#0 120284928#0 120284928#1 111084351 111084356 23161333#0 23161333#1 114152802#1 114152802#2 83167279#0 83167279#1 4742027#1 4742027#2 139542506#0 139542515#2 -79308529#5 -34004380 24488823#1"/>
    </vehicle>
    <vehicle id="flow25_0" type="CarC" depart="60.00">
        <route edges="41475010 41475011 72877412 3871151#1 149621929 26447430#0 26447430#1 93405962 93405963#0 93405963#1 26272403#0 34964160 82483335 71269689 14869719#1 42975277 24254258 88293606 24488829#0 -105054945 -104041178#1 -104041178#0 34004382 1631235#1 34004381 24488823#0 24488823#1"/>
    </vehicle>
    <vehicle id="flow32_0" type="CarC" depart="60.00">
        <route edges="-40507519 -40507521#1 40507522#0 40507522#1 3895293#0 3895293#1 3895293#2 3895293#3 3895293#4 38931615#2 38931615#3 38931615#4 -3895293#15 106454410#3 109313298#0 109313298#1 58913305#0 58913305#1 58913305#2 93265645#3 93265645#0 23981217#0 23981217#1 23981217#2 23981217#3 23981217#4 84198213 41780792#0 41780792#1 41780792#2 41780792#3 41780792#4 41658683#0 41658683#1 41658683#2 4879821#0 4879821#1 39236686 73220632 43157173 41658689#0 117481554#0 136886889#2 117481551#0 117481551#1 117481551#2 117481551#3 117481551#4 117481551#5 20289254 139542504#0 139542504#1 139542504#2 139548967#0 102774228#0 102774228#1 120281680 114152802#0 114152802#1 114152802#2 83167279#0 83167279#1 4742027#1 4742027#2 139542506#0 139542515#2 -79308529#5 -34004380 24488823#1"/>
    </vehicle>
    <vehicle id="flow39_0" type="CarC" depart="60.00">
        <route edges="-24488823#1 34004380 79308529#5 -139542515#2 -139542515#1 139542507#1 139542503#0 139542503#1 139542503#2 139542508#0 139542513 139542512#0 139542512#1 102774228#1 113864880#0 113864880#1 41115734 41115735#0 41115735#1 41115732#1 24225390#0 111084352#8 53182234#1"/>
    </vehicle>
    <vehicle id="flow4_0" type="CarC" depart="60.00">
        <route edges="111657480#0 7642146#0 -40811936 -137386984#3 -137386984#2 -137386984#1 -137386984#0 -1881680 40811938#2 40811938#3 -38767146#8 -38767146#7 -38767146#6 -38767146#5 -38767146#4 -38767146#3 -38767146#2 -38767146#1 -38767146#0 109238034#0 109238034#1 -28274670 -28274671 -8019406 58903407 43067675#0 43067675#1 43067675#2 43067675#3 121533696 15806666 15806660 72609226#0 72609226#1 72609226#2 41527703#0 41527703#1 98438064 110107986#0 110107986#1 110107986#2 110107986#3 110107986#4 24225358#0 24225358#1 24225358#2 24620590 41517906#0 41517906#1 43056027 41568955 118486291#0 118486291#1 118486291#2 24254158 24254182#0 24254182#1 24254182#2 24254182#3 121541578#0 121541578#1 121541578#2 4741996 110999798 24225377#0 24225377#1 24225377#2 24225377#3 85224562 41115731 41115732#0 41115732#1 24225390#0 111084352#8 53182234#1"/>
    </vehicle>
    <vehicle id="flow12_0" type="CarB" depart="80.00">
        <route edges="1881683#0 -17398872#2 -17398872#1 -17398872#0 68487051#0 68487051#1 68487051#2 68487051#3 68487051#4 68487051#5 -38781346#9 -38781346#8 -100711459 -38781346#6 -113748873#2 23492312#6 43067675#2 43067675#3 121533696 15806666 15806660 72609226#0 72609226#1 72609226#2 1880565#0 1880565#1 1880565#2 41488105#0 41488105#1 85292119#0 85292119#1 42979524#0 42979524#1 42979524#2 -35022832#3 -35022832#2 -35022832#1 -35022832#0 5083148#4 1300#0 1300#1 1300#2 1300#3 1300#4 1300#5 1300#6 1300#7 1300#8 1300#9 1300#10 1300#11 1300#12 1300#13 1300#14 1300#15 1300#16 1300#17 139542507#0 139542507#1 139542503#0 139542503#1 139542503#2 139542508#0 139542508#1 139542505 139548964#0 139548964#1 139548964#2 139548964#3 139548964#4 139548964#5 39236693#0 123644622#0 123644621#2 39236693#2 39236693#3 39236693#4 39236693#5 39236695 117481550 43157176 16744539 41780788#0 41780788#1 41780788#2 43054913#0 43054913#1 43054913#2 41781029#0 106359271 41781029#2 4879815 38322835"/>
    </vehicle>
    <vehicle id="flow19_0" type="CarB" depart="80.00">
        <route edges="-53182234#1 -111084352#8 -111084352#7 -111084352#6 126051366#1 41568962#0 41568962#1 111084354 111084357#0 111084357#1 111084357#2 121533593 24967625#0 24967625#1 24967625#2 24967625#3 121541576#0 20288739 88774570 88774569 88774565 20288733 114152792#0 114152792#1 114152792#2 113864865 139548964#3 139548964#4 139548964#5 39236693#0 123644622#0 123644621#2 39236693#2 39236693#3 39236693#4 39236693#5 39236695 117481550 43157176 16744539 41780788#0 41780788#1 41780788#2 43054913#0 43054913#1 43054913#2 41781029#0 106359271 41781029#2 4879815 38322835"/>
    </vehicle>
    <vehicle id="flow26_0" type="CarB" depart="80.00">
        <route edges="41475010 41475011 72877412 3871151#1 149621929 26447430#0 26447430#1 93405962 93405963#0 93405963#1 26272403#0 34964160 82483335 71269689 14869719#1 42975277 24254258 88293606 24488829#0 -105054945 -104041178#1 -104041178#0 34004382 -1631235#0 -105054931#1 -105054931#0 -8019270#1 -8019270#0 -1300#17 -1300#16 -1300#15 -1300#14 -1300#13 -1300#12 -1300#11 -1300#10 -1300#9 -1300#8 -1300#7 -1300#6 -1300#5 -1300#4 -1300#3 -1300#2 -1300#1 -1300#0 -5083148#4 35022832#0 35022832#1 35022832#2 35022832#3 24225343 49778495"/>
    </vehicle>
    <vehicle id="flow33_0" type="CarB" depart="80.00">
        <route edges="-40507519 -40507521#1 40507522#0 40507522#1 3895293#0 3895293#1 3895293#2 3895293#3 3895293#4 38931615#2 38931615#3 38931615#4 -3895293#15 106454410#3 109313298#0 109313298#1 58913305#0 58913305#1 58913305#2 93265645#3 93265645#0 23981217#0 23981217#1 58913343#0 -74984122#1 -74984122#0 74984116#0 74984116#1 74984116#2 -39360782#0 23981217#3 23981217#4 84198213 41780792#0 41780792#1 41780792#2 41780792#3 41780792#4 41658683#0 41658683#1 41658683#2 4879821#0 4879821#1 39236686 73220632 43157173 41658689#0 117481554#0 136886889#2 117481551#0 117481551#1 117481551#2 117481551#3 117481551#4 117481551#5 20289254 139542504#0 139542504#1 139542504#2 139548967#0 102774228#0 102774228#1 120281680 114152802#0 114152802#1 114152802#2 83167279#0 83167279#1 4742027#1 4742027#2 139542506#0 139542506#1 -1300#17 -1300#16 -1300#15 -1300#14 -1300#13 -1300#12 -1300#11 -1300#10 -1300#9 -1300#8 -1300#7 -1300#6 -1300#5 -1300#4 -1300#3 -1300#2 -1300#1 -1300#0 -5083148#4 35022832#0 35022832#1 35022832#2 35022832#3 24225343 49778495"/>
    </vehicle>
    <vehicle id="flow40_0" type="CarB" depart="80.00">
        <route edges="-24488823#1 34004380 79308529#5 -139542515#2 -139542515#1 139542507#1 139542503#0 139542503#1 139542503#2 139542508#0 139542508#1 139542505 139548964#0 139548964#1 139548964#2 139548964#3 139548964#4 139548964#5 39236693#0 123644622#0 123644621#2 39236693#2 39236693#3 39236693#4 39236693#5 39236695 117481550 43157176 16744539 41780788#0 41780788#1 41780788#2 43054913#0 43054913#1 43054913#2 41781029#0 106359271 41781029#2 4879815 38322835"/>
    </vehicle>
    <vehicle id="flow5_0" type="CarB" depart="80.00">
        <route edges="111657480#0 7642146#0 -40811936 -137386984#3 -137386984#2 -137386984#1 -137386984#0 -1881680 40811938#2 40811938#3 -38767146#8 -38767146#7 -38767146#6 -38767146#5 -38767146#4 -38767146#3 -38767146#2 -38767146#1 -38767146#0 109238034#0 109238034#1 -28274670 -28274671 -8019406 58903407 43067675#0 43067675#1 43067675#2 43067675#3 121533696 15806666 15806660 72609226#0 72609226#1 72609226#2 1880565#0 1880565#1 1880565#2 41488105#0 41488105#1 85292119#0 85292119#1 42979524#0 42979524#1 42979524#2 -35022832#3 -35022832#2 -35022832#1 -35022832#0 5083148#4 1300#0 1300#1 1300#2 1300#3 1300#4 1300#5 1300#6 1300#7 1300#8 1300#9 1300#10 1300#11 1300#12 1300#13 1300#14 1300#15 1300#16 1300#17 139542507#0 139542507#1 139542503#0 139542503#1 139542503#2 139542508#0 139542508#1 139542505 139548964#0 139548964#1 139548964#2 139548964#3 139548964#4 139548964#5 39236693#0 123644622#0 123644621#2 39236693#2 39236693#3 39236693#4 39236693#5 39236695 117481550 43157176 16744539 41780788#0 41780788#1 41780788#2 43054913#0 43054913#1 43054913#2 41781029#0 106359271 41781029#2 4879815 38322835"/>
    </vehicle>
    <vType id="CarA" length="5.00" minGap="2.50" maxSpeed="25.00">
        <carFollowing-Krauss accel="3.00" decel="6.00" sigma="0.50"/>
    </vType>
    <vehicle id="flow13_0" type="CarA" depart="100.00">
        <route edges="1881683#0 -17398872#2 -17398872#1 -17398872#0 68487051#0 68487051#1 68487051#2 68487051#3 68487051#4 68487051#5 -38781346#9 -38781346#8 -100711459 -38781346#6 -113748873#2 23492312#6 43067675#2 43067675#3 121533696 15806666 15806660 72609226#0 72609226#1 72609226#2 1880565#0 1880565#1 1880565#2 41488105#0 41488105#1 85292119#0 85292119#1 42979524#0 42979524#1 42979524#2 -35022832#3 -35022832#2 -35022832#1 -35022832#0 5083148#4 1300#0 1300#1 1300#2 1300#3 1300#4 1300#5 1300#6 1300#7 1300#8 1300#9 1300#10 1300#11 1300#12 1300#13 1300#14 1300#15 1300#16 1300#17 139542507#0 139542507#1 139542503#0 139542503#1 139542503#2 139542508#0 139542508#1 139542505 139548964#0 139548964#1 139548964#2 139548964#3 139548964#4 139548964#5 39236693#0 123644622#0 123644621#2 39236693#2 39236693#3 39236693#4 39236693#5 39236695 117481550 43157176 16744539 41780788#0 30761468#0 30761468#1 43054914 -84198213 -23981217#4 -23981217#3 39360782#0 -74984116#2 -74984116#1 -74984116#0 74984122#0 74984122#1 -58913343#0 -23981217#1 -23981217#0 93265645#1 39360780#0 39360780#1 39360780#2 39360780#3 35971175#0 35971175#1 35971175#2 35971175#3 35971175#4 -3895293#7 -3895293#6 -3895293#5 -3895293#4 -3895293#3 -3895293#2 -3895293#1 -3895293#0 -40507522#1 -40507522#0 40507521#1 40507519"/>
    </vehicle>
    <vehicle id="flow20_0" type="CarA" depart="100.00">
        <route edges="-53182234#1 -111084352#8 -111084352#7 -111084352#6 126051366#1 41568962#0 41568962#1 111084354 111084357#0 111084357#1 111084357#2 121533593 24967625#0 24967625#1 24967625#2 24967625#3 121541576#0 20288739 88774570 88774569 88774565 20288733 114152792#0 114152792#1 114152792#2 113864865 139548964#3 139548964#4 139548964#5 39236693#0 123644622#0 123644621#2 39236693#2 39236693#3 39236693#4 39236693#5 39236695 117481550 43157176 16744539 41780788#0 30761468#0 30761468#1 43054914 -84198213 -23981217#4 -23981217#3 39360782#0 -74984116#2 -74984116#1 -74984116#0 74984122#0 74984122#1 -58913343#0 -23981217#1 -23981217#0 93265645#1 39360780#0 39360780#1 39360780#2 39360780#3 35971175#0 35971175#1 35971175#2 35971175#3 35971175#4 -3895293#7 -3895293#6 -3895293#5 -3895293#4 -3895293#3 -3895293#2 -3895293#1 -3895293#0 -40507522#1 -40507522#0 40507521#1 40507519"/>
    </vehicle>
    <vehicle id="flow27_0" type="CarA" depart="100.00">
        <route edges="41475010 41475011 72877412 3871151#1 149621929 26447430#0 26447430#1 93405962 93405963#0 93405963#1 26272403#0 26272403#1 26272403#2 26272403#3 34963935 71826651#0 71826651#1 -42501589#7 -42501589#6 -42501589#5 -42501589#4 -42501589#3 -42501589#2 -42501589#1 -42501589#0 -42501588#1 -42501588#0 -41517356#2 -41517356#1 -41517356#0 -109764451#3 -109764451#2 -109764451#1 -109764451#0 -41517905#1 -41517905#0 -41568952#4 -41568952#3 109764446#0 109764446#1 109764446#2 109764446#3 109764446#4 -41568952#0 -110107995#2 -110107995#1 -110107995#0 -110107914 -109724557 -106919278#4 -106919275#10 -106919275#9 -106919275#8 -106919275#7 -106919275#6 -106919275#5 -106919275#4 -106919275#3 -106919275#2 -106919275#1 -106919275#0 -31788811#1 -31788811#0 31788805#0 31788805#1 31788805#2 98438087 99317495 99317489#1 -110107986#2 -110107986#1 -110107986#0 -98438064 -41527703#1 -41527703#0 -41517904 5173926#0 5173926#1 5173926#2 72609229 15806655 23271283#0 23271283#1 23271288 -16885971#4 -16885971#3 -16885971#2 -16885971#1 -16885971#0 -17398872#3 -1881683#0"/>
    </vehicle>
    <vehicle id="flow34_0" type="CarA" depart="100.00">
        <route edges="-40507519 -40507521#1 40507522#0 40507522#1 3895293#0 3895293#1 3895293#2 3895293#3 3895293#4 38931615#2 38931615#3 38931615#4 -3895293#15 106454410#3 109313298#0 109313298#1 58913305#0 58913305#1 58913305#2 93265645#3 93265645#0 23981217#0 23981217#1 58913343#0 -74984122#1 -74984122#0 74984116#0 74984116#1 74984116#2 -39360782#0 23981217#3 23981217#4 84198213 41780792#0 41780792#1 41780792#2 41780792#3 41780792#4 41658683#0 41658683#1 41658683#2 4879821#0 4879821#1 39236686 73220632 43157173 41658689#0 117481554#0 136886889#2 117481551#0 117481551#1 117481551#2 117481551#3 117481551#4 117481551#5 20289254 139542504#0 139542504#1 139542504#2 139548967#0 139548967#1 139548967#2 -23161317 4742027#0 4742027#1 4742027#2 139542506#0 139542506#1 -1300#17 -1300#16 -1300#15 -1300#14 -1300#13 -1300#12 -1300#11 -1300#10 -1300#9 -1300#8 -1300#7 -1300#6 -1300#5 -1300#4 -1300#3 -1300#2 -1300#1 -1300#0 -5083148#4 35022832#0 35022832#1 35022832#2 129369236#1 129369236#2 -129369242#2 -129369242#1 25666151#2 25666151#3 35280823#0 35280823#1 101827668 85292123#0 85292123#1 41527705#0 41527705#1 41527705#2 5173926#0 5173926#1 5173926#2 72609229 15806655 23271283#0 23271283#1 23271288 -16885971#4 -16885971#3 -16885971#2 -16885971#1 -16885971#0 -17398872#3 -1881683#0"/>
    </vehicle>
    <vehicle id="flow41_0" type="CarA" depart="100.00">
        <route edges="-24488823#1 34004380 79308529#5 -139542515#2 -139542515#1 139542507#1 139542503#0 139542503#1 139542503#2 139542508#0 139542508#1 139542505 139548964#0 139548964#1 139548964#2 139548964#3 139548964#4 139548964#5 39236693#0 123644622#0 123644621#2 39236693#2 39236693#3 39236693#4 39236693#5 39236695 117481550 43157176 16744539 41780788#0 30761468#0 30761468#1 43054914 -84198213 -23981217#4 -23981217#3 39360782#0 -74984116#2 -74984116#1 -74984116#0 74984122#0 74984122#1 -58913343#0 -23981217#1 -23981217#0 93265645#1 39360780#0 39360780#1 39360780#2 39360780#3 35971175#0 35971175#1 35971175#2 35971175#3 35971175#4 -3895293#7 -3895293#6 -3895293#5 -3895293#4 -3895293#3 -3895293#2 -3895293#1 -3895293#0 -40507522#1 -40507522#0 40507521#1 40507519"/>
    </vehicle>
    <vehicle id="flow6_0" type="CarA" depart="100.00">
        <route edges="111657480#0 7642146#0 -40811936 -137386984#3 -137386984#2 -137386984#1 -137386984#0 -1881680 40811938#2 40811938#3 -38767146#8 -38767146#7 -38767146#6 -38767146#5 -38767146#4 -38767146#3 -38767146#2 -38767146#1 -38767146#0 109238034#0 109238034#1 -28274670 -28274671 -8019406 58903407 43067675#0 43067675#1 43067675#2 43067675#3 121533696 15806666 15806660 72609226#0 72609226#1 72609226#2 1880565#0 1880565#1 1880565#2 41488105#0 41488105#1 85292119#0 85292119#1 42979524#0 42979524#1 42979524#2 -35022832#3 -35022832#2 -35022832#1 -35022832#0 5083148#4 1300#0 1300#1 1300#2 1300#3 1300#4 1300#5 1300#6 1300#7 1300#8 1300#9 1300#10 1300#11 1300#12 1300#13 1300#14 1300#15 1300#16 1300#17 139542507#0 139542507#1 139542503#0 139542503#1 139542503#2 139542508#0 139542508#1 139542505 139548964#0 139548964#1 139548964#2 139548964#3 139548964#4 139548964#5 39236693#0 123644622#0 123644621#2 39236693#2 39236693#3 39236693#4 39236693#5 39236695 117481550 43157176 16744539 41780788#0 30761468#0 30761468#1 43054914 -84198213 -23981217#4 -23981217#3 39360782#0 -74984116#2 -74984116#1 -74984116#0 74984122#0 74984122#1 -58913343#0 -23981217#1 -23981217#0 93265645#1 39360780#0 39360780#1 39360780#2 39360780#3 35971175#0 35971175#1 35971175#2 35971175#3 35971175#4 -3895293#7 -3895293#6 -3895293#5 -3895293#4 -3895293#3 -3895293#2 -3895293#1 -3895293#0 -40507522#1 -40507522#0 40507521#1 40507519"/>
    </vehicle>
    <vehicle id="flow14_0" type="CarA" depart="120.00">